46 
  0.000000   0.000000   0.000000 
 Ca   3.31936000     -3.47452900     1.09137200 
 O   3.29637400     -3.45415300     -1.03166200 
 Ca   3.46381700     -1.23429800     -1.17956400 
 Ca   1.07110200     -3.52063000     -1.17497900 
 O   1.14617300     -1.20095200     -1.18591000 
 O   -1.24967900     -3.44020000     -1.13146800 
 O   -3.45423600     -3.29689000     1.03058400 
 Ca   -1.23503800     -3.46526900     1.17890500 
 O   1.09121600     -3.48930600     1.13781200 
 Ca   3.47594800     3.31817400     -1.09164600 
 O   3.45176600     3.29873300     1.03144000 
 O   3.49456200     1.09155900     -1.12755700 
 Ca   3.51823900     1.07292300     1.17793100 
 Ca   1.17830100     1.12470100     -1.23596900 
 O   3.43969500     -1.24932900     1.12499500 
 Ca   1.12506100     -1.17796200     1.23653300 
 O   -1.19845500     -1.14511100     1.18125700 
 O   -3.49350000     -1.09041300     -1.13534100 
 Ca   -1.17558000     -1.12458800     -1.23476800 
 Ca   -3.47541700     -3.31673900     -1.09218000 
 O   1.20028800     1.14671200     1.18615900 
 Ca   -1.12347400     1.17786500     1.23730800 
 O   1.24939700     3.43520100     -1.13650300 
 O   -3.29774000     3.45294900     -1.03197800 
 Ca   -1.07287400     3.51863000     -1.17713200 
 Ca   -3.31929500     3.47401700     1.09067100 
 Ca   -3.46424900     1.23320900     -1.17672100 
 O   -1.14404300     1.19902800     -1.17918300 
 Ca   1.23281200     3.46601400     1.17613400 
 O   -1.09171200     3.49340800     1.13409400 
 O   -3.44049900     1.24902900     1.13222200 
 Ca   -3.51855600     -1.07162300     1.17452000 
 C   1.55234255     -0.45728368     5.32987426 
 C   1.13705403     0.22093013     4.01884190 
 C   0.22184174     1.41113079     4.31946218 
 O   1.04515017     2.33714631     5.12008417 
 O   0.28273790     -1.07689422     5.79104883 
 O   0.41932803     -0.74488443     3.17875555 
 H   2.31522866     -1.22115160     5.13733148 
 H   1.92193208     0.29653526     6.02820517 
 H   2.01605677     0.56506939     3.47054107 
 H   -0.11577485     1.85459980     3.37537208 
 H   -0.64237282     1.03641517     4.87964644 
 H   0.45942791     3.07435363     5.42917207 
 H   0.46951948     -1.62372082     6.59475739 
 H   -0.10713468     -1.26171023     3.84995348 
