46 
  0.000000   0.000000   0.000000 
 Ca   3.31936000     -3.47452900     1.09137200 
 O   3.29637400     -3.45415300     -1.03166200 
 Ca   3.46381700     -1.23429800     -1.17956400 
 Ca   1.07110200     -3.52063000     -1.17497900 
 O   1.14617300     -1.20095200     -1.18591000 
 O   -1.24967900     -3.44020000     -1.13146800 
 O   -3.45423600     -3.29689000     1.03058400 
 Ca   -1.23503800     -3.46526900     1.17890500 
 O   1.09121600     -3.48930600     1.13781200 
 Ca   3.47594800     3.31817400     -1.09164600 
 O   3.45176600     3.29873300     1.03144000 
 O   3.49456200     1.09155900     -1.12755700 
 Ca   3.51823900     1.07292300     1.17793100 
 Ca   1.17830100     1.12470100     -1.23596900 
 O   3.43969500     -1.24932900     1.12499500 
 Ca   1.12506100     -1.17796200     1.23653300 
 O   -1.19845500     -1.14511100     1.18125700 
 O   -3.49350000     -1.09041300     -1.13534100 
 Ca   -1.17558000     -1.12458800     -1.23476800 
 Ca   -3.47541700     -3.31673900     -1.09218000 
 O   1.20028800     1.14671200     1.18615900 
 Ca   -1.12347400     1.17786500     1.23730800 
 O   1.24939700     3.43520100     -1.13650300 
 O   -3.29774000     3.45294900     -1.03197800 
 Ca   -1.07287400     3.51863000     -1.17713200 
 Ca   -3.31929500     3.47401700     1.09067100 
 Ca   -3.46424900     1.23320900     -1.17672100 
 O   -1.14404300     1.19902800     -1.17918300 
 Ca   1.23281200     3.46601400     1.17613400 
 O   -1.09171200     3.49340800     1.13409400 
 O   -3.44049900     1.24902900     1.13222200 
 Ca   -3.51855600     -1.07162300     1.17452000 
 C   0.98982164     -0.69746181     4.96468510 
 C   -0.13384312     -0.65226571     3.92229400 
 C   -1.44107458     -0.21570120     4.58946793 
 O   -1.17838289     1.14408278     5.09771757 
 O   0.60263334     -1.85742040     5.80912364 
 O   -0.30785943     -1.98711715     3.33785975 
 H   1.95531128     -0.87264123     4.47508929 
 H   1.00147993     0.23811551     5.52777004 
 H   0.11667411     0.04329363     3.11908185 
 H   -2.25006290     -0.24129720     3.84998258 
 H   -1.65826968     -0.92415921     5.39693219 
 H   -1.96390695     1.42536524     5.63242558 
 H   1.32418512     -2.02803121     6.46495070 
 H   -0.15931452     -2.58462449     4.12252398 
