46 
  0.000000   0.000000   0.000000 
 Ca   3.31936000     -3.47452900     1.09137200 
 O   3.29637400     -3.45415300     -1.03166200 
 Ca   3.46381700     -1.23429800     -1.17956400 
 Ca   1.07110200     -3.52063000     -1.17497900 
 O   1.14617300     -1.20095200     -1.18591000 
 O   -1.24967900     -3.44020000     -1.13146800 
 O   -3.45423600     -3.29689000     1.03058400 
 Ca   -1.23503800     -3.46526900     1.17890500 
 O   1.09121600     -3.48930600     1.13781200 
 Ca   3.47594800     3.31817400     -1.09164600 
 O   3.45176600     3.29873300     1.03144000 
 O   3.49456200     1.09155900     -1.12755700 
 Ca   3.51823900     1.07292300     1.17793100 
 Ca   1.17830100     1.12470100     -1.23596900 
 O   3.43969500     -1.24932900     1.12499500 
 Ca   1.12506100     -1.17796200     1.23653300 
 O   -1.19845500     -1.14511100     1.18125700 
 O   -3.49350000     -1.09041300     -1.13534100 
 Ca   -1.17558000     -1.12458800     -1.23476800 
 Ca   -3.47541700     -3.31673900     -1.09218000 
 O   1.20028800     1.14671200     1.18615900 
 Ca   -1.12347400     1.17786500     1.23730800 
 O   1.24939700     3.43520100     -1.13650300 
 O   -3.29774000     3.45294900     -1.03197800 
 Ca   -1.07287400     3.51863000     -1.17713200 
 Ca   -3.31929500     3.47401700     1.09067100 
 Ca   -3.46424900     1.23320900     -1.17672100 
 O   -1.14404300     1.19902800     -1.17918300 
 Ca   1.23281200     3.46601400     1.17613400 
 O   -1.09171200     3.49340800     1.13409400 
 O   -3.44049900     1.24902900     1.13222200 
 Ca   -3.51855600     -1.07162300     1.17452000 
 C   0.41356304     0.81899982     6.14741336 
 C   0.30000448     1.71177565     4.90592226 
 C   -1.17376503     2.00859814     4.61529619 
 O   -1.66011160     2.73986439     5.80064583 
 O   -0.13464780     -0.47607274     5.66705190 
 O   0.89341150     1.02086884     3.75518802 
 H   1.46370059     0.71484843     6.44561756 
 H   -0.18209871     1.24497512     6.95749830 
 H   0.83863103     2.64908742     5.05771011 
 H   -1.24849976     2.59911406     3.69461084 
 H   -1.68849180     1.05048142     4.48056045 
 H   -2.63913848     2.85877871     5.70345384 
 H   -0.01788811     -1.15416436     6.37867896 
 H   0.62492181     0.07342793     3.91345225 
