46
complex 6 AL-DFTB-DFTopt
Ca        -2.12990       -4.32950        1.20680
O         -2.73150       -4.26190       -0.82830
Ca        -0.72050       -3.65140       -1.57710
Ca        -3.55590       -2.19350       -0.68970
O         -1.44550       -1.46450       -1.32320
O         -4.22510        0.01160       -0.40020
O         -4.18870        2.09040        1.88730
Ca        -3.57640       -0.05330        1.81650
O         -2.85390       -2.24420        1.51370
Ca         3.40890       -2.09580       -2.69990
O          3.99610       -2.11880       -0.65960
O          1.39920       -2.87980       -2.14680
Ca         2.05540       -2.95090        0.06240
Ca         0.64510       -0.69240       -1.99070
O         -0.07690       -3.67640        0.63580
Ca        -0.73270       -1.48130        0.99220
O         -1.47420        0.71180        1.20000
O         -2.83910        2.92740       -0.76590
Ca        -2.14540        0.74200       -1.12090
Ca        -4.82590        2.14250       -0.13710
O          1.37090       -0.75000        0.31960
Ca         0.65850        1.44070        0.62990
O          2.77780        0.03520       -2.51560
O          1.34620        4.30720       -1.89280
Ca         2.08650        2.24430       -2.30720
Ca         1.97060        4.29570        0.13610
Ca        -0.74880        3.70130       -1.42430
O         -0.02630        1.51190       -1.68670
Ca         3.46740        0.01880       -0.30800
O          2.72450        2.21080       -0.08590
O         -0.06070        3.64200        0.77910
Ca        -2.16390        2.91490        1.44320
C          3.94450       -1.26580        3.31040
C          2.86690       -0.19780        3.17830
C          3.46150        1.20760        2.96100
O          4.16700        1.30910        1.73270
O          4.62550       -1.01160        4.54240
O          2.00610       -0.20710        4.31820
H          3.46260       -2.25830        3.32680
H          4.62240       -1.22420        2.44650
H          2.24030       -0.46200        2.31580
H          2.62520        1.93090        2.99250
H          4.12920        1.45020        3.79690
H          3.58500        1.88640        1.03930
H          5.31200       -1.68350        4.66080
H          2.58950       -0.28650        5.09300
