46
complex 7 AL-DFTB-DFTopt
Ca         2.41090       -4.03300       -0.19350
O          1.80380       -3.93420       -2.22570
Ca         2.33150       -1.77840       -2.45340
Ca        -0.34610       -3.58820       -1.74080
O          0.15100       -1.32230       -1.81300
O         -2.50700       -3.08700       -1.05250
O         -3.95870       -2.61960        1.63620
Ca        -1.85660       -3.19540        1.16190
O          0.32050       -3.64230        0.47350
Ca         3.20990        2.68940       -2.45230
O          3.77280        2.60010       -0.40690
O          2.80540        0.49950       -2.45290
Ca         3.46410        0.39580       -0.24570
Ca         0.59790        0.95870       -1.91090
O          2.94550       -1.86970       -0.23380
Ca         0.80760       -1.38090        0.51820
O         -1.39200       -0.92250        1.11330
O         -4.18840       -0.36830       -0.47110
Ca        -2.03720       -0.82160       -1.21310
Ca        -4.57150       -2.56070       -0.39560
O          1.29490        0.89130        0.40800
Ca        -0.87580        1.34430        1.10530
O          1.12010        3.21250       -1.87580
O         -3.13420        4.05640       -0.50630
Ca        -1.06490        3.71990       -1.26790
Ca        -2.56160        4.00650        1.53730
Ca        -3.74220        1.91090       -0.55980
O         -1.56190        1.45380       -1.20930
Ca         1.75200        3.16450        0.34860
O         -0.44590        3.61730        0.95670
O         -3.07610        1.84100        1.65010
Ca        -3.56750       -0.42640        1.75320
C          3.98470       -1.13940        4.21180
C          3.30130       -0.65040        2.94490
C          3.40200        0.88730        2.76490
O          4.49070        1.18220        1.86830
O          3.20980       -0.63020        5.30280
O          1.93470       -1.10400        2.94090
H          4.00090       -2.23920        4.22150
H          5.01940       -0.76620        4.23920
H          3.74350       -1.14550        2.07350
H          2.44000        1.19170        2.33250
H          3.55860        1.38190        3.73160
H          4.31460        1.98730        1.27050
H          3.53890       -1.01490        6.12770
H          1.56580       -0.92120        3.82120
