46
complex 4 AL-DFTB-DFTopt
Ca         3.94370       -2.01250       -0.45250
O          3.31890       -1.99350       -2.48170
Ca         2.64300        0.13210       -2.42890
Ca         1.31640       -2.87580       -2.04790
O          0.56140       -0.69210       -1.82890
O         -0.77070       -3.65750       -1.39420
O         -2.18050       -4.34640        1.26910
Ca        -0.09910       -3.68470        0.81650
O          1.97370       -2.84850        0.16970
Ca         1.07140        4.36740       -1.85910
O          1.65370        4.33190        0.18250
O          1.86400        2.30490       -2.13740
Ca         2.54010        2.28710        0.06690
Ca        -0.24510        1.48160       -1.63570
O          3.27490        0.10000       -0.21270
Ca         1.21550       -0.68830        0.50380
O         -0.88490       -1.51470        1.05820
O         -3.60360       -2.30140       -0.56240
Ca        -1.55110       -1.47750       -1.26410
Ca        -2.78940       -4.36420       -0.76460
O          0.44780        1.50080        0.68570
Ca        -1.62190        0.67170        1.34090
O         -0.96940        3.65480       -1.31070
O         -5.00390        1.99310       -0.02640
Ca        -3.08250        2.87570       -0.73710
Ca        -4.43360        1.99620        2.01840
Ca        -4.40980       -0.13100       -0.35980
O         -2.32770        0.69350       -0.96950
Ca        -0.34480        3.66810        0.91620
O         -2.44050        2.83600        1.48310
O         -3.74460       -0.11660        1.85100
Ca        -2.98310       -2.30250        1.66280
C          6.07260       -0.17850        1.74710
C          5.13300        0.92890        2.30650
C          4.08590        0.29090        3.25110
O          4.66670       -0.79650        4.00060
O          5.39710       -1.44220        1.45970
O          4.47890        1.64630        1.33220
H          6.49100        0.16880        0.79930
H          6.88910       -0.39240        2.44610
H          5.79280        1.57530        2.91840
H          3.67020        1.05710        3.91720
H          3.27030       -0.08490        2.61390
H          4.02760       -1.09360        4.66560
H          5.08970       -1.74100        2.34110
H          3.93250        0.57980        0.40810
