46
complex 1 AL-DFTB-DFTopt
Ca         1.26160       -4.65100        1.05940
O          1.79280       -4.63580       -0.99630
Ca         3.03300       -2.78820       -0.83530
Ca        -0.07270       -3.59710       -1.64280
O          1.10290       -1.61630       -1.35800
O         -1.99570       -2.38230       -2.11250
O         -4.33050       -1.15620       -0.49990
Ca        -2.58380       -2.39610        0.12190
O         -0.62980       -3.56460        0.60190
Ca         5.19870        1.16650       -0.20060
O          4.62840        1.17540        1.84460
O          4.15830       -0.77990       -0.49860
Ca         3.58210       -0.79270        1.73390
Ca         2.25520        0.39070       -1.11980
O          2.41870       -2.77440        1.38610
Ca         0.47950       -1.56990        0.98330
O         -1.44370       -0.39590        0.41100
O         -2.75630        0.76840       -2.33820
Ca        -0.79940       -0.40520       -1.91770
Ca        -3.81720       -1.17690       -2.55980
O          1.66730        0.41480        1.22990
Ca        -0.28400        1.58810        0.76050
O          3.39490        2.36610       -0.73020
O         -0.44470        4.62480       -1.64870
Ca         1.49360        3.58370       -1.28120
Ca        -0.99330        4.66770        0.40160
Ca        -1.60960        2.77500       -2.09260
O          0.32460        1.60100       -1.57780
Ca         2.80670        2.41620        1.50610
O          0.87700        3.58620        0.94650
O         -2.17020        2.79220        0.14740
Ca        -3.35670        0.81220       -0.10790
C         -4.83010       -0.53710        2.72720
C         -3.45390       -0.73100        3.38750
C         -2.80740        0.63890        3.77070
O         -3.68690        1.73900        3.70140
O         -4.78390        0.33890        1.64690
O         -2.56380       -1.46280        2.52040
H         -5.17320       -1.55560        2.43280
H         -5.53140       -0.19980        3.51290
H         -3.57610       -1.35930        4.27940
H         -2.41030        0.60520        4.79180
H         -1.93000        0.78650        3.10850
H         -4.16730        1.61960        2.84600
H         -4.89440       -0.86590        0.25930
H         -2.11770       -0.82130        1.87450
